powerflow/Codes/PF_Formulation/resultados_csv/17/500bus/ramos.csv
caso,script,branch_id,f_bus,t_bus,pf_pu,qf_pu,pt_pu,qt_pu,loss_p_pu,loss_q_pu
500bus.pwf,17,1,242,287,-0.8828039464663316,-0.06147607773816774,0.8884542174901687,0.09414982934885693,0.0056502710238370835,0.032673751610689195
500bus.pwf,17,2,325,324,-1.0350000000000015,-0.27591368245099646,1.0356557466897747,0.28044941644843946,0.0006557466897731956,0.004535733997443003
500bus.pwf,17,3,2,1,-0.4279999999999841,-0.11409626115464251,0.4281036419452146,0.1147090758729374,0.00010364194523049264,0.0006128147182948851
500bus.pwf,17,4,38,37,-0.0012899999999977662,-0.00032990902216166175,0.0012900009699667603,0.00032991581600181886,9.699689940134704e-10,6.793840157115483e-9
500bus.pwf,17,5,423,496,-1.901493892518352,-0.21730171387095862,1.9155784657892077,0.34106125775697194,0.01408457327085566,0.12375954388601332
500bus.pwf,17,6,77,76,-0.06950999999999823,-0.018531330276867427,0.06951360524493992,0.018548514586153194,3.6052449416956733e-6,1.7184309285767085e-5
500bus.pwf,17,7,294,293,-0.25609999999999755,-0.06829075462465814,0.2561473549438784,0.06853224869135763,4.735494388086181e-5,0.00024149406669948803
500bus.pwf,17,8,27,382,0.4102455243540201,0.25721581794120385,-0.40945718248135926,-0.2609948385622676,0.0007883418726608582,-0.0037790206210637223
500bus.pwf,17,9,377,376,-0.903900000000004,-0.24096499488061193,0.9043533107435205,0.24399492425155098,0.0004533107435165107,0.003029929370939044
500bus.pwf,17,10,46,156,0.3879584115882668,0.1320292084287168,-0.3867694357310507,-0.13982236030957973,0.0011889758572161124,-0.007793151880862936
500bus.pwf,17,11,387,470,0.9080442651636079,0.1552774789035884,-0.9062338854055617,-0.1456100881893893,0.00181037975804621,0.009667390714199087
500bus.pwf,17,12,495,449,-0.40121469464892423,-0.0990989095385588,0.401523309238638,0.09634615396113319,0.00030861458971376265,-0.002752755577425603
500bus.pwf,17,13,365,374,0.29664009728412216,0.04409886204297307,-0.29637701143775225,-0.05011355353177392,0.00026308584636991483,-0.00601469148880085
500bus.pwf,17,14,263,491,0.9903560392566748,0.10405498639701467,-0.9869335967369655,-0.08190250779216986,0.0034224425197093566,0.022152478604844816
500bus.pwf,17,15,285,487,1.0746395223709477,-0.2073268762117269,-1.070785113382323,0.2342221050912197,0.003854408988624769,0.026895228879492805
500bus.pwf,17,16,401,5,1.205766033296595,-0.1532104938295086,-1.1984963265577684,0.2079621810071687,0.007269706738826542,0.0547516871776601
500bus.pwf,17,17,237,236,-0.027119999999990454,-0.007229019514300611,0.027120564993759557,0.007231736011549978,5.649937691032392e-7,2.716497249366512e-6
500bus.pwf,17,18,133,369,-0.3189744168022124,-0.07540204066697152,0.3196334631224176,0.061516033989959404,0.0006590463202051922,-0.01388600667701212
500bus.pwf,17,19,493,380,0.8599330959209125,0.09050473893792951,-0.8573152207831943,-0.0756101292866472,0.002617875137718162,0.014894609651282309
500bus.pwf,17,20,322,208,1.2729066467627874,-0.5465558795368154,-1.2672129214459427,0.5926021294629081,0.0056937253168447555,0.04604624992609274
500bus.pwf,17,21,178,176,-0.06813000000000093,-0.01815692064870059,0.0681334085680634,0.018172637215266105,3.4085680624684755e-6,1.5716566565515677e-5
500bus.pwf,17,22,263,276,1.1681806500564318,0.6593188235845155,-1.166631571233156,-0.6471163492386744,0.001549078823275707,0.012202474345841097
500bus.pwf,17,23,148,147,-0.5741999999999747,-0.15308895105060522,0.5744100219326482,0.15448334502265432,0.00021002193267349867,0.0013943939720491016
500bus.pwf,17,24,177,176,-0.08781000000000877,-0.02340691989219508,0.08781461024013443,0.023437112331591695,4.610240125657583e-6,3.0192439396614645e-5
500bus.pwf,17,25,217,216,-0.5510000000000023,-0.14687767026123874,0.5512081432744725,0.1479632415091657,0.0002081432744702738,0.0010855712479269641
500bus.pwf,17,26,173,172,-0.0313499999999997,-0.00830858073067996,0.03135074251092,0.008312026029794407,7.425109203040847e-7,3.445299114446243e-6
500bus.pwf,17,27,368,367,-0.11450000000000356,-0.030523876002846822,0.1145073105310996,0.030569362336778243,7.3105310960386305e-6,4.548633393142154e-5
500bus.pwf,17,28,66,308,0.5631591386908161,0.025871103828541325,-0.5608191563045692,-0.02502591266555368,0.002339982386246886,0.0008451911629876463
500bus.pwf,17,29,379,378,-0.1300999999999984,-0.03466951356363168,0.13011068511646293,0.03473907611264693,1.0685116464514977e-5,6.956254901524517e-5
500bus.pwf,17,30,236,106,0.5739590180849353,0.07350770047632998,-0.5728825402859009,-0.07250974047982645,0.0010764777990344143,0.000997959996503539
500bus.pwf,17,31,232,371,-0.43276841218728623,0.1317406269326837,0.4328783002299835,-0.2712707813431776,0.00010988804269729258,-0.1395301544104939
500bus.pwf,17,32,58,253,0.7385859111773864,0.2110891229504366,-0.7358172126959358,-0.19796733793270585,0.00276869848145056,0.013121785017730758
500bus.pwf,17,33,179,374,-0.04863338655719073,0.004872828002049005,0.04864302182111745,-0.01612360450376747,9.635263926721649e-6,-0.011250776501718462
500bus.pwf,17,34,366,365,-0.5648999999999902,-0.15059794367109036,0.5650902490072085,0.1519748400903781,0.00019024900721831273,0.001376896419287732
500bus.pwf,17,35,315,314,-0.0042600000000004405,-0.0013897271614673194,0.0042600108595803425,0.0013897908518465123,1.0859579901989491e-8,6.369037919284892e-8
500bus.pwf,17,36,204,202,-0.4566999999999979,-0.12176756564625221,0.4568300838422559,0.12268229189413701,0.00013008384225798864,0.0009147262478848006
500bus.pwf,17,37,259,253,-0.08159999999999452,-0.02168569840845316,0.08160491372991881,0.021712669661019614,4.913729924282961e-6,2.6971252566454496e-5
500bus.pwf,17,38,160,399,-0.12886385025484226,-0.07617071274303246,0.12895455309212278,0.06454215307034207,9.070283728052075e-5,-0.011628559672690386
500bus.pwf,17,39,308,500,-0.24905164929710286,-0.018883249268260058,0.2494981898965822,0.0023299980494809053,0.0004465405994793503,-0.016553251218779153
500bus.pwf,17,40,336,93,0.4812602849812401,-0.06847887278783854,-0.4798831746010283,0.06246333844742164,0.0013771103802118212,-0.006015534340416899
500bus.pwf,17,41,367,15,-1.4674632898118638,-0.18356862535487004,1.4716872468311974,0.21818806373614016,0.004223957019333646,0.03461943838127013
500bus.pwf,17,42,116,114,-0.030989999999995896,-0.008262563004267203,0.03099054454422427,0.008266240564795307,5.445442283757984e-7,3.6775605281036405e-6
500bus.pwf,17,43,283,236,-0.21137657219122027,-0.0493683394984739,0.2115939008623454,0.03714717852872944,0.00021732867112511656,-0.01222116096974446
500bus.pwf,17,44,462,465,-0.4370887812391291,-0.012200058545684754,0.4377151332325484,0.00807528749044286,0.0006263519934193162,-0.004124771055241894
500bus.pwf,17,45,41,40,-0.5798999999999928,-0.1546001519610259,0.5801280346281721,0.1560172759035568,0.00022803462817932996,0.0014171239425309068
500bus.pwf,17,46,489,149,0.006572403973037955,0.03237092042738908,-0.006569017419015855,-0.039667772514177954,3.3865540221000856e-6,-0.007296852086788874
500bus.pwf,17,47,29,491,0.13690803613565958,-0.16679709548603266,-0.13665630708300777,0.15212001873282016,0.0002517290526518057,-0.014677076753212503
500bus.pwf,17,48,95,170,0.12666565224640525,0.01357997903207305,-0.1266308442687939,-0.0197193565968233,3.480797761135079e-5,-0.00613937756475025
500bus.pwf,17,49,199,196,-0.8638999999999615,-0.2303993855642693,0.86445359525074,0.2330446157274514,0.0005535952507784714,0.0026452301631820774
500bus.pwf,17,50,239,238,-0.39130000000000426,-0.10439191900738465,0.39138687049515003,0.10500502781698728,8.687049514577438e-5,0.000613108809602636
500bus.pwf,17,51,137,426,-0.6376381595471575,-0.13519967699603014,0.6389612587321797,0.13891820382108405,0.0013230991850221585,0.003718526825053914
500bus.pwf,17,52,335,333,-0.008340000000000364,-0.002218255980580302,0.00834004699433057,0.002218522234358438,4.699433020505239e-8,2.662537781361607e-7
500bus.pwf,17,53,26,24,-0.21659999999999627,-0.05773186690485169,0.21662895111343886,0.05792364360551198,2.895111344258794e-5,0.0001917767006602844
500bus.pwf,17,54,112,283,0.11532396579210968,0.01347248184379371,-0.11519981378060384,-0.03815989280942869,0.00012415201150584032,-0.02468741096563498
500bus.pwf,17,55,86,85,-0.17589999999998018,-0.04690865356563063,0.17592222152239434,0.047041550056669164,2.2221522414156425e-5,0.00013289649103853662
500bus.pwf,17,56,295,447,-0.8664587675876658,0.2376653824695968,0.8692623797136358,-0.22288231992064278,0.002803612125970023,0.014783062548954007
500bus.pwf,17,57,23,464,-0.24603105268736453,-0.17592417477798158,0.2460897545483775,-0.08933798535012108,5.8701861012977474e-5,-0.26526216012810266
500bus.pwf,17,58,342,10,-0.5106230892525614,-0.15049866784537735,0.5114467232699929,0.1498884971091895,0.0008236340174314627,-0.0006101707361878539
500bus.pwf,17,59,108,495,0.47875808744033066,0.09438710344662027,-0.4778789709621881,-0.09688469438055847,0.0008791164781425387,-0.0024975909339381985
500bus.pwf,17,60,492,405,-0.2964013325291383,-0.01970976902220706,0.2967937475825128,0.010467659525030874,0.00039241505337450633,-0.009242109497176187
500bus.pwf,17,61,496,143,-1.4023700014900602,-0.19904042714786366,1.406429084170956,0.23160764297543304,0.00405908268089572,0.032567215827569385
500bus.pwf,17,62,39,332,-0.22796006547622358,0.14293449594521013,0.2279959870068163,-0.24711114486450247,3.592153059273073e-5,-0.10417664891929235
500bus.pwf,17,63,13,12,-0.3715999999999904,-0.09910132875511453,0.371697705541582,0.09959277304635679,9.770554159160838e-5,0.0004914442912422601
500bus.pwf,17,64,191,35,0.07675013637885879,0.06851145684097455,-0.07670166098431279,-0.0805841519452259,4.847539454599925e-5,-0.012072695104251352
500bus.pwf,17,65,251,360,-0.7579755307784868,-0.1473206227865805,0.7608340771959641,0.15953690145860863,0.0028585464174772923,0.012216278672028125
500bus.pwf,17,66,136,135,-0.26759999999999323,-0.07133760360630696,0.26764180493355966,0.07161643520038034,4.1804933566425007e-5,0.000278831594073381
500bus.pwf,17,67,263,326,1.2876888730745606,0.2486277570072407,-1.283363404161648,-0.21487958896378856,0.004325468912912633,0.033748168043452154
500bus.pwf,17,68,286,285,-0.082680000000012,-0.022567938695144975,0.08268487974103214,0.02259182397426487,4.879741020147321e-6,2.388527911989513e-5
500bus.pwf,17,69,10,349,-0.536167160951024,-0.15637735156502458,0.536613032958151,0.15639448691015673,0.0004458720071269795,1.713534513214654e-5
500bus.pwf,17,70,150,149,-0.015030000000005017,-0.004026665715208986,0.015030170320630176,0.004027590731574713,1.7032062515909274e-7,9.250163657270605e-7
500bus.pwf,17,71,15,369,0.4996760626412455,0.05236032563949955,-0.4992099967666203,-0.054135941065036164,0.0004660658746251656,-0.0017756154255366141
500bus.pwf,17,72,233,486,0.8839877581405574,0.10118107357024035,-0.882193398745026,-0.0909497691155912,0.0017943593955314086,0.010231304454649148
500bus.pwf,17,73,276,485,0.2039592779080225,0.2232530255579055,-0.20371177042557723,-0.22940634275204608,0.0002475074824452861,-0.006153317194140584
500bus.pwf,17,74,281,384,-0.6883927676456515,0.10306516619362381,0.690342914788563,-0.09565316435069048,0.0019501471429115291,0.007412001842933336
500bus.pwf,17,75,420,419,-0.052260000000000306,-0.01415798032935004,0.052261725027466954,0.014169440007356572,1.7250274666480436e-6,1.1459678006531249e-5
500bus.pwf,17,76,449,330,-0.43485366244878293,-0.10520735755176355,0.43527711207359104,0.10297618945927065,0.0004234496248081143,-0.002231168092492908
500bus.pwf,17,77,268,267,-1.1710000000000085,-0.31240027317438873,1.1717830042522996,0.3179724949547578,0.000783004252291164,0.005572221780369091
500bus.pwf,17,78,337,336,-0.05672999999999799,-0.015089604996624371,0.05673196076996216,0.015103206357586328,1.9607699641710497e-6,1.3601360961956743e-5
500bus.pwf,17,79,451,449,-0.022109999999994225,-0.005889677486693189,0.022110281276692158,0.005891388890320003,2.812766979332082e-7,1.7114036268139898e-6
500bus.pwf,17,80,376,469,1.014977044443821,0.22126605885697137,-1.009505807479484,-0.18635453956940629,0.005471236964337045,0.034911519287565085
500bus.pwf,17,81,346,345,-0.47579999999999484,-0.12689111000039677,0.4759396571908236,0.1276905633626163,0.00013965719082875694,0.0007994533622195377
500bus.pwf,17,82,440,57,1.030363360530328,-0.03811309140065269,-1.0297177547033274,-0.10300731349224954,0.0006456058270005727,-0.14112040489290223
500bus.pwf,17,83,12,216,0.2955445180343578,0.036208011131520404,-0.2951706221594744,-0.04418290513014568,0.0003738958748833454,-0.007974893998625276
500bus.pwf,17,84,133,226,0.05143725177411272,-0.007583336858454,-0.051419995285381645,-0.012980932759776213,1.7256488731076658e-5,-0.020564269618230213
500bus.pwf,17,85,100,99,-0.13520000000000115,-0.0360819571543521,0.1352126557107845,0.03615305813161791,1.265571078334915e-5,7.110097726581444e-5
500bus.pwf,17,86,95,369,-0.46673609644991365,-0.104673779361326,0.4676770335615499,0.10106771613976513,0.0009409371116362308,-0.0036060632215608734
500bus.pwf,17,87,372,112,1.5266758260886932,0.31632961688127337,-1.5217418879633777,-0.2750515233228198,0.004933938125315507,0.04127809355845358
500bus.pwf,17,88,139,376,0.8315596735271392,0.22331300335564858,-0.8295448011093519,-0.21208774064321229,0.0020148724177873056,0.01122526271243629
500bus.pwf,17,89,200,163,-0.47516667263079726,-0.02685892218601872,0.47589623484653054,0.022770327756933786,0.0007295622157332815,-0.004088594429084935
500bus.pwf,17,90,238,46,0.8246165039073314,0.26255754481601723,-0.8221867305944872,-0.24853991940050144,0.002429773312844219,0.014017625415515794
500bus.pwf,17,91,203,202,-0.04688999999999501,-0.012467596402638548,0.04689159261799338,0.012476549712426333,1.5926179983694055e-6,8.953309787784747e-6
500bus.pwf,17,92,417,474,-0.727099310820199,-0.0778079836237123,0.7290232015349926,0.08594644122550762,0.0019238907147935969,0.008138457601795324
500bus.pwf,17,93,15,230,1.1463371225504466,-0.04960536490553462,-1.1320900337722701,0.15251663884360572,0.014247088778176487,0.1029112739380711
500bus.pwf,17,94,142,141,-1.6130000000000002,-0.43006563858198793,1.6149763859977149,0.43989921661954573,0.001976385997714658,0.0098335780375578
500bus.pwf,17,95,190,189,-0.1406999999999978,-0.037519047698965524,0.14071503896416246,0.03758470439211803,1.5038964164659774e-5,6.565669315250489e-5
500bus.pwf,17,96,317,316,-0.03752999999998521,-0.010373850915720604,0.03753101594282795,0.010378460499020557,1.015942842741424e-6,4.6095832999526465e-6
500bus.pwf,17,97,206,205,-0.030089999999986464,-0.008021674523748622,0.030090560749342746,0.008024737303602357,5.607493562820309e-7,3.0627798537352646e-6
500bus.pwf,17,98,406,405,-0.05249999999999786,-0.013894397747576549,0.052501768615644685,0.013905161296831992,1.7686156468244008e-6,1.076354925544365e-5
500bus.pwf,17,99,186,185,-0.4534999999999756,-0.1208481956392021,0.45362631575988965,0.12153749116275922,0.00012631575991406407,0.0006892955235571208
500bus.pwf,17,100,23,471,-1.256303108473772,-0.1203161347270315,1.2571385450643635,-0.01812637454242129,0.0008354365905915984,-0.13844250926945278
500bus.pwf,17,101,344,342,-0.02430000000000373,-0.006434949439367153,0.024300373287694264,0.0064374811986316095,3.732876905360172e-7,2.531759264456923e-6
500bus.pwf,17,102,154,488,0.7370334984253389,0.2013114197738018,-0.7321897924952226,-0.18170300179013116,0.004843705930116293,0.019608417983670634
500bus.pwf,17,103,104,31,-0.16103110259598116,-0.24674421422134807,0.16151173163422913,0.23480860311297058,0.00048062903824797054,-0.011935611108377486
500bus.pwf,17,104,398,387,-0.16770000000002228,-0.04470405407266668,0.16772078550570513,0.04479732005717011,2.078550568285209e-5,9.326598450343226e-5
500bus.pwf,17,105,322,58,-1.5785601422201285,-0.05059285622215154,1.5837970423373893,0.09483333793264731,0.0052369001172607454,0.04424048171049577
500bus.pwf,17,106,428,246,-0.0022064411250995453,-0.09397936957710627,0.0022106180241448503,-0.21782711828568993,4.176899045305049e-6,-0.3118064878627962
500bus.pwf,17,107,221,493,0.9032734470313907,0.11848207785845859,-0.9004030959209125,-0.10130377094352298,0.0028703511104781754,0.017178306914935604
500bus.pwf,17,108,287,415,0.4590617080886984,0.10565562243054517,-0.4581041087070491,-0.11068755214664906,0.0009575993816492989,-0.005031929716103889
500bus.pwf,17,109,373,372,-0.28840000000000054,-0.07689749128684675,0.28845238854425526,0.07718415476790974,5.238854425471118e-5,0.00028666348106298756
500bus.pwf,17,110,376,495,-0.1273381519154505,-0.004983833966026677,0.12739366561111176,-0.0045020507863280015,5.5513695661257856e-5,-0.009485884752354679
500bus.pwf,17,111,405,300,-0.34929551619815796,-0.024267229976920865,0.3497197838661224,0.018143146818988973,0.0004242676679644397,-0.006124083157931892
500bus.pwf,17,112,15,473,0.20734276804470228,0.01787607044250844,-0.20693844212287646,-0.04418762798218839,0.00040432592182582106,-0.026311557539679953
500bus.pwf,17,113,210,24,-1.263180650363643,-0.3432675328316013,1.2671431295480937,0.37264032420311577,0.003962479184450807,0.029372791371514495
500bus.pwf,17,114,62,3,0.12051315585858023,0.010713179450665179,-0.1204731585457287,-0.018764772327305435,3.999731285153629e-5,-0.008051592876640257
500bus.pwf,17,115,191,205,0.3257758363943305,-0.06063552600449834,-0.32516950077970586,0.05064646569241499,0.0006063356146246424,-0.009989060312083353
500bus.pwf,17,116,485,454,-0.7737736776096844,-0.0939059117186418,0.7750440411731099,0.0998563106780623,0.0012703635634254695,0.005950398959420511
500bus.pwf,17,117,31,85,-0.4150931764038696,0.10370321494355576,0.4160932822830436,-0.11015630801780145,0.0010001058791739847,-0.006453093074245686
500bus.pwf,17,118,235,271,0.845552329487271,-0.04292855041651421,-0.8453237410648083,-0.03924107549673807,0.00022858842246265,-0.08216962591325228
500bus.pwf,17,119,110,316,-1.1208261073790722,0.28644906851065755,1.1253854215626864,-0.2534018026341991,0.004559314183614216,0.033047265876458454
500bus.pwf,17,120,143,401,2.107592956798907,0.24496879983868772,-2.0896982273958753,-0.08579294181896549,0.017894729403031828,0.15917585801972223
500bus.pwf,17,121,307,304,-0.7603999999999876,-0.20279575277302722,0.7607639018647111,0.2051023276752907,0.0003639018647234593,0.002306574902263492
500bus.pwf,17,122,290,289,-0.036899999999994736,-0.009792436710741642,0.03690077486795831,0.009797872782231482,7.748679635710687e-7,5.436071489839378e-6
500bus.pwf,17,123,356,382,-0.10977302007802044,-0.18755221698428706,0.10990491550191868,0.18007341749442,0.00013189542389824283,-0.007478799489867072
500bus.pwf,17,124,429,466,0.31536459473083456,0.09340825919419028,-0.3151623112799933,-0.09753683302174788,0.00020228345084127852,-0.004128573827557602
500bus.pwf,17,125,358,310,-0.31645503673070974,0.15407279686144473,0.316830271947645,-0.15992770979615326,0.00037523521693527684,-0.005854912934708523
500bus.pwf,17,126,471,464,0.9420561748383224,-0.07713297365613637,-0.9416800868717184,-0.028050347173530707,0.00037608796660393295,-0.10518332082966708
500bus.pwf,17,127,80,65,0.7947739583775771,-0.3635516219831192,-0.7940949719584328,0.13185185681670822,0.0006789864191443229,-0.23169976516641097
500bus.pwf,17,128,21,112,0.5226168094125501,-0.0027623694393654544,-0.5211931082512096,0.0010539670939508708,0.001423701161340496,-0.0017084023454145836
500bus.pwf,17,129,4,3,-1.3269999999999968,-0.3537885591456493,1.3283102940583604,0.36044964658237494,0.0013102940583635814,0.006661087436725666
500bus.pwf,17,130,244,426,0.02585534549773154,-0.14274669448675478,-0.02578072842141159,0.13179045329154146,7.46170763199494e-5,-0.010956241195213323
500bus.pwf,17,131,60,131,-0.12030650444701185,-0.012673511774145359,0.12033562781849516,0.006533478766065278,2.9123371483308347e-5,-0.006140033008080081
500bus.pwf,17,132,321,320,-1.5040000000000182,-0.4010567497372027,1.5055776906868052,0.41017952301812427,0.0015776906867870366,0.009122773280921592
500bus.pwf,17,133,445,461,-0.01142636314838777,0.1348371872423884,0.011493126955901795,-0.14416648446816765,6.676380751402533e-5,-0.009329297225779243
500bus.pwf,17,134,472,99,0.011689210885426373,-0.04182827596518052,-0.011684261849328994,0.03162763755436543,4.949036097379178e-6,-0.010200638410815088
500bus.pwf,17,135,492,336,-0.2989986674708585,-0.13901051761433764,0.29969096361129816,0.12647033777003686,0.000692296140439641,-0.01254017984430078
500bus.pwf,17,136,448,447,-0.5756000000000024,-0.15361998488245798,0.5758097577101974,0.15501501707627052,0.0002097577101949355,0.0013950321938125398
500bus.pwf,17,137,235,407,-1.6455317632127713,-0.07910514315526368,1.6489677323550271,-0.21296836492603094,0.003435969142255857,-0.2920735080812946
500bus.pwf,17,138,19,112,-0.2051246265308343,0.009984756763168397,0.20533059967318124,-0.022228990019351576,0.00020597314234693798,-0.012244233256183179
500bus.pwf,17,139,56,55,-0.022530000000008224,-0.006048026532437961,0.022530358118790852,0.006049875788574626,3.581187826284804e-7,1.8492561366656446e-6
500bus.pwf,17,140,313,312,-0.12440000000000584,-0.03317117197448953,0.12441117864039786,0.03324038833335623,1.1178640392017769e-5,6.921635886669719e-5
500bus.pwf,17,141,34,33,-0.2500000000000083,-0.06663809007060437,0.2500437469373379,0.06686814683454387,4.374693732955848e-5,0.00023005676393950125
500bus.pwf,17,142,429,139,0.8352172799773219,0.23007789660386238,-0.8341096777458419,-0.2239527351864186,0.0011076022314799872,0.006125161417443792
500bus.pwf,17,143,376,429,-1.2534095538173822,-0.3151252816528372,1.2581226688852731,0.3520123279972696,0.004713115067890961,0.036887046344432406
500bus.pwf,17,144,44,200,-0.38596076582533456,-0.007215480266148398,0.38627093978951166,0.0031346560527947473,0.0003101739641770962,-0.004080824213353651
500bus.pwf,17,145,240,74,0.14524766030959496,-0.04801214837374138,-0.1451432221556917,0.035017379932389105,0.0001044381539032635,-0.012994768441352278
500bus.pwf,17,146,68,314,-0.5592526069399547,0.11017794507277434,0.5598445465117609,-0.11004312655454063,0.0005919395718061438,0.0001348185182337147
500bus.pwf,17,147,343,342,-0.02511000000000528,-0.006654949511024502,0.025110401560937343,0.006657479965618809,4.015609320617841e-7,2.53045459430723e-6
500bus.pwf,17,148,162,232,2.216720342005751,-0.2915242021365048,-2.21415450210996,0.18908540517948774,0.0025658398957908446,-0.10243879695701708
500bus.pwf,17,149,166,228,1.6579510655861163,0.4041570551406385,-1.644319695454456,-0.2950830438866082,0.013631370131660159,0.10907401125403027
500bus.pwf,17,150,92,91,-0.6503000000000091,-0.1734168093550176,0.6505629158829228,0.17508030302607783,0.0002629158829137168,0.0016634936710602233
500bus.pwf,17,151,174,172,-0.07304999999999029,-0.019428577057669358,0.0730534993061791,0.0194467269835054,3.499306188814444e-6,1.8149925836041803e-5
500bus.pwf,17,152,475,269,-0.3585017925574565,0.08235848308579893,0.3589852690491888,-0.08860780575336666,0.0004834764917323042,-0.006249322667567725
500bus.pwf,17,153,65,297,-0.09466292154466371,-0.19988787532172503,0.09467791047030838,-0.03204777358483191,1.4988925644665585e-5,-0.23193564890655693
500bus.pwf,17,154,89,457,-0.40595613033117617,-0.07134806261805796,0.40745598325154686,0.05527345146996968,0.0014998529203706923,-0.016074611148088273
500bus.pwf,17,155,201,200,-0.08888999999997696,-0.023698869611178428,0.08889573284129329,0.02372539611975569,5.73284131633045e-6,2.6526508577262575e-5
500bus.pwf,17,156,140,139,-0.002549999999998641,-0.0006598546878648268,0.0025500042186969206,0.0006598770543290631,4.218698279601085e-9,2.2366464236256434e-8
500bus.pwf,17,157,221,478,-0.374381894303042,0.08196056643941158,0.3748355280016025,-0.08689377791600189,0.0004536336985605516,-0.004933211476590316
500bus.pwf,17,158,138,137,-0.7869999999999894,-0.20982000668473016,0.7873846732909203,0.21244265323991168,0.00038467329093094804,0.002622646555181518
500bus.pwf,17,159,143,452,1.2927550175470957,0.06296104940233424,-1.2803822013602482,0.03224131541344735,0.01237281618684749,0.09520236481578159
500bus.pwf,17,160,407,80,-1.5157098433627842,0.14144663161827087,1.5176817351489253,-0.33852066608174003,0.0019718917861411,-0.19707403446346916
500bus.pwf,17,161,175,220,0.38533400669096884,-0.1313328862419177,-0.3851720579689769,-0.14689629362967688,0.00016194872199193355,-0.27822917987159457
500bus.pwf,17,162,153,152,-0.9314999999999921,-0.24839507147959858,0.9319982716321314,0.25132391119229336,0.0004982716321393355,0.0029288397126947807
500bus.pwf,17,163,421,354,-0.5552061376715591,-0.21728816430128425,0.5568575403177398,0.21793756660007155,0.0016514026461806885,0.0006494022987872938
500bus.pwf,17,164,454,29,1.140585167012756,0.1258184155428713,-1.1372863395360155,-0.10343549885523848,0.0032988274767404846,0.022382916687632815
500bus.pwf,17,165,228,474,0.7326308823461213,0.09814187638439335,-0.7290232015349908,-0.08580039228693152,0.003607680811130498,0.01234148409746183
500bus.pwf,17,166,194,193,-0.2869000000000021,-0.07651665000455773,0.2869633547583838,0.07686289282026701,6.335475838170623e-5,0.0003462428157092745
500bus.pwf,17,167,360,417,0.1800062786930038,-0.018258027188921857,-0.17973208510712904,-0.0032899422483392594,0.00027419358587477127,-0.021547969437261116
500bus.pwf,17,168,462,477,0.4370887812391306,0.012121326745154065,-0.4361271721924204,-0.01835341449132774,0.0009616090467101657,-0.006232087746173676
500bus.pwf,17,169,159,158,-0.22850000000000203,-0.060937954603795745,0.22853418082971,0.06115830944671934,3.418082970796377e-5,0.00022035484292359797
500bus.pwf,17,170,273,272,-0.09491999999999898,-0.02530811726969221,0.09492562589263961,0.025347752347631904,5.625892640637176e-6,3.9635077939692565e-5
500bus.pwf,17,171,310,281,-0.7552610817157618,0.5122912264748088,0.7571969215206563,-0.5004232503793639,0.0019358398048945347,0.011867976095444988
500bus.pwf,17,172,375,374,-0.24769999999999304,-0.06603658207035713,0.2477339896166183,0.06624057403411533,3.39896166252629e-5,0.00020399196375819884
500bus.pwf,17,173,378,318,-0.49330153102165597,-0.057316215642678296,0.4936236129823206,0.056387187014826916,0.000322081960664633,-0.0009290286278513804
500bus.pwf,17,174,114,191,-0.182929090674377,-0.012519280120576824,0.18312411821093352,-0.0020645325171474126,0.0001950275365565357,-0.014583812637724236
500bus.pwf,17,175,112,236,0.012856037416127493,-0.0045220342629317956,-0.012854797473540664,-0.014524749969076767,1.2399425868281355e-6,-0.019046784232008562
500bus.pwf,17,176,202,172,0.24909069326373384,-0.10135232769340527,-0.2487861223207824,0.0922304270427042,0.00030457094295144316,-0.009121900650701065
500bus.pwf,17,177,459,496,-0.2658798524560095,-0.1325832022473917,0.26606065474120094,0.12747970846610732,0.00018080228519146146,-0.005103493781284385
500bus.pwf,17,178,233,53,0.9847189055283425,0.08118947938636413,-0.9824129154402628,-0.06768917548788213,0.0023059900880797457,0.013500303898482002
500bus.pwf,17,179,59,58,-1.408999999999995,-0.37580694743652016,1.4103657231821987,0.38427865777568554,0.0013657231822037375,0.008471710339165384
500bus.pwf,17,180,160,212,-0.13067828844663382,0.006688740207178906,0.13072464762827712,-0.013816816016008144,4.635918164330732e-5,-0.007128075808829237
500bus.pwf,17,181,243,242,-0.7446999999999964,-0.19851965831094437,0.7450697059637026,0.20077877592115262,0.0003697059637062239,0.00225911761020825
500bus.pwf,17,182,284,283,-0.32650000000001367,-0.08705801958910163,0.3265763859718086,0.08753021086297329,7.638597179493445e-5,0.00047219127387165827
500bus.pwf,17,183,87,141,3.176635115875243,-0.08232929217998836,-3.157596063464343,0.25956333764667155,0.01903905241089987,0.1772340454666832
500bus.pwf,17,184,83,342,-0.4602197142633462,-0.1401665968733649,0.4612123144039306,0.13744875484854296,0.0009926001405844431,-0.002717842024821948
500bus.pwf,17,185,338,459,0.47927473359983763,0.0638113471987184,-0.4788201475439907,-0.06600590058638589,0.00045458605584691725,-0.002194553387667497
500bus.pwf,17,186,402,401,-0.8835000000000008,-0.23573233017197226,0.8839321940992833,0.23887133959465445,0.0004321940992824125,0.003139009422682193
500bus.pwf,17,187,253,417,-0.4964563881640393,-0.08227150648093326,0.49787636026593546,0.07878081678197288,0.0014199721018961498,-0.003490689698960381
500bus.pwf,17,188,216,70,-0.2560375211149942,-0.10375802903055824,0.256246273106742,0.0977244987943278,0.0002087519917477465,-0.006033530236230433
500bus.pwf,17,189,124,260,0.24669876462351853,0.05178775355765332,-0.24657356811550096,-0.05753206959626901,0.00012519650801756654,-0.005744316038615693
500bus.pwf,17,190,491,326,-0.07141009618002449,0.106108553835179,0.07145142943114137,-0.11303712023223653,4.13332511168818e-5,-0.006928566397057523
500bus.pwf,17,191,424,423,-1.570999999999999,-0.41884248185834116,1.5728665451582782,0.42940017060461577,0.0018665451582791093,0.010557688746274607
500bus.pwf,17,192,40,131,0.2907946667042441,0.06883753418843613,-0.2905326955260084,-0.07585349827784799,0.00026197117823567595,-0.0070159640894118525
500bus.pwf,17,193,131,333,-0.08184907374025446,0.001868086411075661,0.0818641558454965,-0.008581624070497947,1.5082105242036903e-5,-0.006713537659422286
500bus.pwf,17,194,180,179,-0.14139999999999564,-0.03769478874745405,0.14141533056699818,0.0377677348546496,1.53305670025361e-5,7.294610719554839e-5
500bus.pwf,17,195,137,214,0.48784335593847955,0.058070052011675054,-0.4870576016379606,-0.05978412950427205,0.0007857543005189704,-0.0017140774925969993
500bus.pwf,17,196,227,226,-0.054239999999988145,-0.014474233824122263,0.05424212446797812,0.014484898538645308,2.124467989972345e-6,1.0664714523045404e-5
500bus.pwf,17,197,158,233,-0.47773847540218967,-0.10169080468322667,0.4792052869186774,0.09548277471134303,0.0014668115164877538,-0.006208029971883633
500bus.pwf,17,198,135,457,-0.5903390048088755,-0.0910460822693684,0.5927565480354706,0.09051666495699685,0.0024175432265951535,-0.0005294173123715495
500bus.pwf,17,199,181,487,-0.9514224408841544,0.282865660473913,0.9540851133823239,-0.265961899385811,0.002662672498169538,0.016903761088101987
500bus.pwf,17,200,348,347,-0.8640000000000053,-0.2302902339109471,0.8644936541335976,0.23295086505433232,0.0004936541335922584,0.002660631143385217
...
